18
Coordinates from ORCA-job /burg/berkelbach/users/eav2136/projects/peroxide_dissociation/05_range_separated_functional/wb97x-d-radical/wb97x-d-radical_opt
  C   -0.05817133795543      6.43398878542567      3.58637478744330
  S   1.45638159684796      6.13424314111068      2.67577717326288
  C   1.12503121461857      4.66404525243858      1.78542831427305
  C   -0.09463986268427      3.99005448983068      1.80093783798806
  C   -0.25284449592692      2.82750259011551      1.06824376555956
  C   0.79869341049056      2.32496498637828      0.31577619138388
  C   2.01743974716179      2.99857937264159      0.29076864141030
  C   2.17924744397836      4.15654802284906      1.01743751251767
  C   0.63205157660919      1.07924876883731     -0.43921289085739
  O   -0.42398005075139      0.40846528476962     -0.50005708191305
  O   1.53032977787905      0.52441429014275     -1.11455886891286
  H   0.12727135693843      7.33394395969105      4.17067875681789
  H   -0.28459545313085      5.61544054379369      4.26882762333170
  H   -0.90043736190521      6.61891865946432      2.92067781224058
  H   -0.92660206013210      4.36187687068971      2.38227404155710
  H   -1.19940538301680      2.30030011804967      1.08203732988900
  H   2.83612018784279      2.60445836048402     -0.29932026884426
  H   3.12840524820460      4.67897464802026      1.00186224027903
