18
Coordinates from ORCA-job /burg/berkelbach/users/eav2136/projects/peroxide_dissociation/05_range_separated_functional/wb97x-d-radical-nmf/wb97x-d-radical-nmf_opt
  C   -0.06218267410554      6.46100955767944      3.54997984517311
  S   1.44065802099781      6.02512520792235      2.70084101634004
  C   1.11500189481589      4.62344901947957      1.82355532398608
  C   -0.14226293441933      3.97466379606392      1.78517514015329
  C   -0.27885086308251      2.83283262663147      1.04723123489217
  C   0.80411928687222      2.31401128932162      0.31658595990466
  C   2.04592633884492      2.96401173627613      0.34364893582058
  C   2.21351704261839      4.09608003419360      1.09040059470452
  C   0.62815988885158      1.04591890877279     -0.49728871972066
  O   0.01584559847968      0.11390763786398      0.06266900630275
  O   1.11433429070599      1.05653470953932     -1.64616422770226
  H   0.17693279995455      7.35642393124377      4.12220386363703
  H   -0.36014281626959      5.66115411944065      4.22715771544223
  H   -0.85210190214200      6.68248055030310      2.83328147918578
  H   -0.98528904201068      4.37188774736389      2.33327522935913
  H   -1.23120891326205      2.31898955482020      1.01946842801574
  H   2.87360768143497      2.56083527974050     -0.22538893790992
  H   3.17423185678400      4.59665243807619      1.12732102984221
