36
Coordinates from ORCA-job /burg/berkelbach/users/eav2136/projects/peroxide_dissociation/05_range_separated_functional/wb97x-v-peroxide-nmf/wb97x-v-peroxide-nmf_opt
  C   0.07620346712649      6.20794007650326      3.87885097566328
  S   1.58801196835268      5.91197881565163      2.95582620090046
  C   1.19388024677235      4.53008064154032      1.94346870921361
  C   -0.07071258622229      3.93959694076120      1.89449912405160
  C   -0.28874538408126      2.83144246960918      1.08973973628075
  C   0.74390797743991      2.31293241164960      0.31343516194650
  C   1.99827126786916      2.92318146358215      0.32947740268037
  C   2.22502839084656      4.01472057496449      1.14829124860185
  C   0.54508047220662      1.15546357955721     -0.58837560892095
  O   -0.05420250359602      0.00847440516838     -0.09883979327771
  O   0.85242644615511      1.10278768463354     -1.74822921195193
  O   -0.02006263603152     -0.02905498280208      1.31296489307367
  C   -1.28854424033069     -0.11600722056456      1.83832832839223
  C   -1.23252225858399     -0.00534339164161      3.30992284803603
  O   -2.26845132848200     -0.25409290115181      1.15767015048859
  C   -2.37058958145369     -0.36091604818786      4.03968809637102
  C   -2.38295042225311     -0.22721019691582      5.41323416474413
  C   -1.26003064975230      0.27685794138155      6.08634514869375
  C   -0.12339471605136      0.63017118256699      5.35648390601179
  C   -0.11139376407365      0.48757306038873      3.97675542682513
  S   -1.38927044461578      0.42817467689424      7.82957393917874
  C   0.18070363417092      1.15108329928113      8.31439276982699
  H   0.29833367199047      7.04566245700715      4.54383239190381
  H   -0.19805492869721      5.34208173593519      4.48500533607457
  H   -0.74927656482054      6.49194736083041      3.22346617314126
  H   -0.89464008189555      4.32898191510158      2.48046999891125
  H   -1.28115840285161      2.39123173552083      1.05435177996162
  H   2.80120485060547      2.52735146715127     -0.28507583331276
  H   3.21124932651710      4.46988284878843      1.17377553943248
  H   -3.24503500903155     -0.74324514082814      3.52299908337505
  H   -3.27108408272752     -0.50816843488414      5.97238562237674
  H   0.75826052654192      1.02285518143148      5.84848024602731
  H   0.77608146700381      0.77987036033814      3.42562285581327
  H   0.12081440442838      1.28028200290770      9.39754144788986
  H   0.32939632284284      2.12908549401997      7.85270500223259
  H   1.01774299936049      0.48876582437336      8.08646648384464
