36
Coordinates from ORCA-job /burg/berkelbach/users/eav2136/projects/peroxide_dissociation/05_range_separated_functional/wb97x-v-peroxide-dmf/wb97x-v-peroxide-dmf_opt
  C   0.00125208458338      6.16285163730642      3.90495824632052
  S   1.55677765674322      5.80977475477409      3.07955274273048
  C   1.16732742718123      4.45954556619655      2.02097146199880
  C   -0.11813129645465      3.93724377252157      1.86823648621367
  C   -0.33207223675969      2.85133437897434      1.03071165247295
  C   0.72652339232209      2.28777580257139      0.32527310596749
  C   2.00633726924589      2.82727858743152      0.44903461785519
  C   2.22691332904093      3.89652732879629      1.29956041974469
  C   0.52353955232006      1.15205157908905     -0.61270947327813
  O   -0.05532937215152     -0.01079374644262     -0.13557402749756
  O   0.80764918907309      1.13908720398843     -1.77552658493184
  O   -0.02348976338726     -0.06263736478513      1.27754304518657
  C   -1.29663147916231     -0.07980121221476      1.80730875547783
  C   -1.22101883041643      0.03653126160569      3.28181171389504
  O   -2.28576308203258     -0.17350876754460      1.13941673379196
  C   -2.34714346542011     -0.32327410957795      4.02748863847723
  C   -2.34254003898295     -0.18843016837012      5.40134807045268
  C   -1.21434180356288      0.32306199390745      6.05956099272256
  C   -0.09111590397499      0.68495506263079      5.31406943544193
  C   -0.09604637950229      0.53920302761865      3.93380345810653
  S   -1.32201933716054      0.47106961558139      7.80548372220635
  C   0.25576359164986      1.18819793209712      8.27398168378162
  H   0.21789076609529      6.97356816509822      4.60429953593059
  H   -0.35643186947980      5.29890686256794      4.46905471919844
  H   -0.76203604459671      6.50236886560914      3.20235177555859
  H   -0.96204166542348      4.36224769748161      2.39838314439925
  H   -1.34060240118619      2.46314564846851      0.91840049068449
  H   2.83449589223684      2.39707873484056     -0.10595565474940
  H   3.23136377946552      4.29663735805015      1.40696489391850
  H   -3.22600510264764     -0.71042839629708      3.52228065042625
  H   -3.22105336538069     -0.47514209822402      5.97269074740903
  H   0.79348324636759      1.08636700410617      5.79367573611361
  H   0.78180696849368      0.83893720904298      3.37135731813372
  H   0.21075413806704      1.30916598347253      9.35876147899025
  H   0.39999788896917      2.16929708175690      7.81751178272756
  H   1.08841512050643      0.52622503843391      8.02944822862417
