18
Coordinates from ORCA-job /burg/berkelbach/users/eav2136/projects/peroxide_dissociation/04_solvated_radical/dmf/dmf_radical_opt
  C   -0.08494735856270      6.45846560249113      3.51538909595597
  S   1.46758146510625      6.01400061857174      2.75436674377941
  C   1.14048914779528      4.60046449006109      1.85017683707847
  C   -0.12524153892085      3.99064207260074      1.76748484193612
  C   -0.28204429516168      2.85882970298308      1.01090955127746
  C   0.80002734909639      2.32284674265750      0.28936771012787
  C   2.07275557268647      2.90972613167620      0.40891898446471
  C   2.24132873091288      4.03693049129364      1.16360130437484
  C   0.60284070810009      1.11244270338733     -0.56252079668466
  O   0.72773627923958      0.10164108135698      0.17958504410202
  O   0.36828469639071      1.15991551203804     -1.76289912360058
  H   0.12282662056342      7.36409961993438      4.08660832095663
  H   -0.42441889374700      5.67508463516752      4.19337141978066
  H   -0.84151391523670      6.67530260191182      2.76101532550465
  H   -0.97315886564935      4.40764808103174      2.29387568044535
  H   -1.25418499968929      2.38321909074349      0.94870496664287
  H   2.91524244685921      2.47877040002195     -0.11969468341690
  H   3.21669240528558      4.50593856680409      1.23569169470158
