18
Coordinates from ORCA-job /burg/berkelbach/users/eav2136/projects/peroxide_dissociation/04_solvated_radical/nmf/nmf_radical_opt
  C   -0.06604649370730      6.45292342645109      3.53983720246455
  S   1.44731447308820      6.02488626725822      2.70991366880385
  C   1.12189120240428      4.61820751434376      1.82473630821728
  C   -0.13630425222049      3.98027320816938      1.78461092511374
  C   -0.27887649278822      2.83895046228738      1.04430517109232
  C   0.80380256630497      2.31412903595569      0.31639413813570
  C   2.05013059685327      2.95838318739465      0.34927081234637
  C   2.21941336833104      4.09000632115661      1.09752089197347
  C   0.62341712721906      1.05871937248840     -0.49105295336017
  O   0.07733968041923      0.10309251727400      0.09709081315241
  O   1.03753005137097      1.09322454049074     -1.66664739307593
  H   0.16265674317599      7.34983168371560      4.11626389950997
  H   -0.37057407161893      5.65021875300388      4.21293620940440
  H   -0.85002302706423      6.67191005051490      2.81391634002822
  H   -0.97624840039084      4.38219354148162      2.33472467975040
  H   -1.23370979022662      2.32828708113352      1.01362858534620
  H   2.87680550377112      2.55221005849471     -0.22058596083981
  H   3.18177677014680      4.58852112311832      1.13708957936346
